conf_01
 OpenBabel04101912243D

  9  7  0  0  0  0  0  0  0  0999 V2000
    3.1118   -0.3525    0.0009 O   0  0  0  0  0  0  0  0  0  0  0  0
    1.9266   -0.1786   -0.2214 C   0  0  0  0  0  0  0  0  0  0  0  0
    1.1112    0.5368    0.4642 O   0  0  0  0  0  0  0  0  0  0  0  0
    1.4588   -0.6756   -1.1054 H   0  0  0  0  0  0  0  0  0  0  0  0
   -1.1117    0.5410   -0.4606 O   0  0  0  0  0  0  0  0  0  0  0  0
   -1.9263   -0.1805    0.2198 C   0  0  0  0  0  0  0  0  0  0  0  0
   -3.1117   -0.3528   -0.0028 O   0  0  0  0  0  0  0  0  0  0  0  0
   -1.4575   -0.6844    1.0993 H   0  0  0  0  0  0  0  0  0  0  0  0
   -0.0004    0.5350    0.0017 H   0  0  0  0  0  0  0  0  0  0  0  0
  2  1  2  0  0  0  0
  2  3  1  0  0  0  0
  4  2  1  0  0  0  0
  5  9  1  0  0  0  0
  5  6  1  0  0  0  0
  6  8  1  0  0  0  0
  7  6  2  0  0  0  0
M  RAD  1   3   2
M  END
$$$$
